Version 4
SHEET 1 4940 10468
WIRE 352 -208 -384 -208
WIRE 608 -176 -176 -176
WIRE 352 -144 352 -208
WIRE 480 -144 352 -144
WIRE 208 -128 16 -128
WIRE 208 -112 208 -128
WIRE 416 -96 288 -96
WIRE 352 -64 352 -144
WIRE 288 -48 288 -96
WIRE 320 -48 288 -48
WIRE 416 -32 416 -96
WIRE 416 -32 384 -32
WIRE 448 -32 416 -32
WIRE 208 -16 208 -32
WIRE 320 -16 208 -16
WIRE 448 -16 448 -32
WIRE 608 0 608 -176
WIRE 208 16 208 -16
WIRE -384 112 -384 -208
WIRE -176 112 -176 -176
WIRE 16 112 16 -128
WIRE 448 112 448 64
WIRE 608 112 608 64
WIRE 608 112 448 112
WIRE 448 144 448 112
WIRE 608 160 608 112
FLAG 16 192 0
FLAG -176 192 0
FLAG 208 96 0
FLAG 448 224 0
FLAG 608 224 0
FLAG 352 0 0
FLAG -384 192 0
FLAG 480 -80 0
SYMBOL voltage 16 96 R0
WINDOW 123 0 0 Left 2
WINDOW 39 24 124 Left 2
SYMATTR InstName V1
SYMATTR Value SINE(2.5 2.5 10)
SYMATTR SpiceLine Rser=1
SYMBOL schottky 624 64 R180
WINDOW 0 24 64 Left 2
WINDOW 3 24 0 Left 2
SYMATTR InstName D1
SYMATTR Value BAT54
SYMATTR Description Diode
SYMATTR Type diode
SYMBOL schottky 624 224 R180
WINDOW 0 24 64 Left 2
WINDOW 3 24 0 Left 2
SYMATTR InstName D2
SYMATTR Value BAT54
SYMATTR Description Diode
SYMATTR Type diode
SYMBOL voltage -176 96 R0
WINDOW 123 0 0 Left 2
WINDOW 39 24 124 Left 2
SYMATTR InstName V2
SYMATTR Value 3.3
SYMBOL res 432 -32 R0
SYMATTR InstName R2
SYMATTR Value 1.7k
SYMBOL res 192 -128 R0
SYMATTR InstName R3
SYMATTR Value 5k
SYMBOL res 192 0 R0
SYMATTR InstName R4
SYMATTR Value 5k
SYMBOL voltage -384 96 R0
WINDOW 123 0 0 Left 2
WINDOW 39 24 124 Left 2
SYMATTR InstName V3
SYMATTR Value 5v
SYMBOL cap 464 -144 R0
SYMATTR InstName C2
SYMATTR Value 100nF
SYMBOL Opamps\\opamp2 352 -96 R0
SYMATTR InstName U1
SYMATTR Value LM358/NS
SYMBOL res 432 128 R0
SYMATTR InstName R1
SYMATTR Value 3.3k
TEXT -210 248 Left 2 !.tran 0 1 0 1e-6 startup
TEXT 408 328 Left 2 !.lib opamp.sub
TEXT 720 -160 Left 2 !.SUBCKT MCP6001 1 2 3 4 5\n\n*               | | | | |\n\n*               | | | | Output\n\n*               | | | Negative Supply\n\n*               | | Positive Supply\n\n*               | Inverting Input\n\n*               Non-inverting Input\n\n*\n\n********************************************************************************\n\n* Software License Agreement                                                   *\n\n*                                                                              *\n\n* The software supplied herewith by Microchip Technology Incorporated (the     *\n\n* "Company") is intended and supplied to you, the Company's customer, for use  *\n\n* soley and exclusively on Microchip products.                                 *\n\n*                                                                              *\n\n* The software is owned by the Company and/or its supplier, and is protected   *\n\n* under applicable copyright laws. All rights are reserved. Any use in         *\n\n* violation of the foregoing restrictions may subject the user to criminal     *\n\n* sanctions under applicable laws, as well as to civil liability for the       *\n\n* breach of the terms and conditions of this license.                          *\n\n*                                                                              *\n\n* THIS SOFTWARE IS PROVIDED IN AN "AS IS" CONDITION. NO WARRANTIES, WHETHER    *\n\n* EXPRESS, IMPLIED OR STATUTORY, INCLUDING, BUT NOT LIMITED TO, IMPLIED        *\n\n* WARRANTIES OF MERCHANTABILITY AND FITNESS FOR A PARTICULAR PURPOSE APPLY TO  *\n\n* THIS SOFTWARE. THE COMPANY SHALL NOT, IN ANY CIRCUMSTANCES, BE LIABLE FOR    *\n\n* SPECIAL, INCIDENTAL OR CONSEQUENTIAL DAMAGES, FOR ANY REASON WHATSOEVER.     *\n\n********************************************************************************\n\n*\n\n* Macromodel for the MCP6001/2/4 op amp family:\n\n*   MCP6001, MCP6001R, MCP6001U, MCP6002, MCP6004\n\n*\n\n* Revision History:\n\n*   REV A: 21-Jun-02, Created model\n\n*   REV B: 16-Jul-02, Improved output stage\n\n*   REV C: 03-Jan-03, Added MCP6001\n\n*   REV D: 19-Aug-06, Added over temperature, improved output stage, \n\n*                     fixed overdrive recovery time\n\n*   REV E: 27-Jul-07, Updated output impedance for better model stability w/cap load\n\n*   REV F: 09-Jul-12, Added MCP6001R, MCP6001U\n\n*\n\n* Recommendations:\n\n*   Use PSPICE (other simulators may require translation)\n\n*   For a quick, effective design, use a combination of: data sheet\n\n*     specs, bench testing, and simulations with this macromodel\n\n*   For high impedance circuits, set GMIN=100F in .OPTIONS\n\n*\n\n* Supported:\n\n*   Typical performance for temperature range (-40 to 125) degrees Celsius\n\n*   DC, AC, Transient, and Noise analyses.\n\n*   Most specs, including: offsets, DC PSRR, DC CMRR, input impedance,\n\n*     open loop gain, voltage ranges, supply current, ... , etc.\n\n*   Temperature effects for Ibias, Iquiescent, Iout short circuit \n\n*   current, Vsat on both rails, Slew Rate vs. Temp and P.S.\n\n*\n\n* Not Supported:\n\n*   Some Variation in specs vs. Power Supply Voltage\n\n*   Monte Carlo (Vos, Ib), Process variation\n\n*   Distortion (detailed non-linear behavior)\n\n*   Behavior outside normal operating region\n\n*\n\n* Input Stage\n\nV10  3 10 -500M\n\nR10 10 11 6.90K \n\nR11 10 12 6.90K \n\nC11 11 12 0.2p\n\nC12 1  0 6.00P \n\nE12 71 14 POLY(4) 20 0 21 0 26 0 27 0   1.00M 20.1 20.1 1 1\n\nG12 1 0 62 0 1m \n\nM12 11 14 15 15 NMI L=2.00U W=42.0U\n\nM14 12  2 15 15 NMI L=2.00U W=42.0U\n\nG14 2 0 62 0 1m \n\nC14  2  0 6.00P \n\nI15 15  4 50.0U\n\nV16 16  4 -300M\n\nGD16 16 1 TABLE {V(16,1)} ((-100,-1p)(0,0)(1m,1n)(2m,1m)(3m,1)) \n\nV13  3 13 -300M\n\nGD13 2 13 TABLE {V(2,13)} ((-100,-1p)(0,0)(1m,1n)(2m,1m)(3m,1)) \n\nR70 1 0 20.6T  \n\nR71 2 0 20.6T \n\nR72 1 2 20T \n\nI80 1 2 0.5p\n\n*\n\n* Noise, PSRR, and CMRR\n\nI20 21 20 423U\n\nD20 20  0 DN1\n\nD21  0 21 DN1\n\nG26  0 26 POLY(1) 3 4   110U -49U\n\nR26 26  0 1\n\nG27  0 27 POLY(2) 1 0 2 0   -440U 39.7U 39.7U\n\nR27 27  0 1\n\n*\n\n* Open Loop Gain, Slew Rate\n\nG30  0 30 POLY(1) 12 11   0 1\n\nR30 30  0 1K\n\nG31  0 31 POLY(1) 3 4 86 5.25\n\nR31 31  0 1 TC=2.8m\n\nGD31 30 31 TABLE {V(30,31)} ((-11,-1)(-10,-10n)(0,0)(1m,1000))\n\nG32 32  0 POLY(1) 3 4 113.7 3.5\n\nR32 32  0 1 TC=2.65m\n\nGD32 30 32 TABLE {V(30,32)} ((-1m,-1000)(0,0)(10,10n)(11,1))\n\nG33 0 33 30 0 1m\n\nR33 33 0 1k\n\nG34  0 34 33 0 425M\n\nR34  34 0 1K\n\nC34  34 0 74U\n\nG37  0 37 34 0 1m\n\nR37  37 0 1K\n\nC37  37 0 41.6P \n\nG38  0 38 37 0 1m\n\nR38  39 0 1K\n\nL38  38 39 100U\n\nE38  35 0 38 0 1\n\nG35 33 0 TABLE {V(35,3)} ((-1,-1n)(0,0)(16,1n))(16.1,1))\n\nG36 33 0 TABLE {V(35,4)} ((-16.1,-1)((-16,-1n)(0,0)(1,1n))\n\n*\n\n* Output Stage \n\nR80 50 0 100MEG\n\nG50 0 50 57 96 2\n\nR58 57  96 0.50\n\nR57 57  0 750\n\nC58  5  0 2.00P\n\nG57  0 57 POLY(3) 3 0 4 0 35 0   0 0.67M 0.67M 1.5M\n\nGD55 55 57 TABLE {V(55,57)} ((-2m,-1)(-1m,-1m)(0,0)(10,1n))\n\nGD56 57 56 TABLE {V(57,56)} ((-2m,-1)(-1m,-1m)(0,0)(10,1n))\n\nE55 55  0 POLY(2) 3 0 51 0 -0.7m 1 -40.0M\n\nE56 56  0 POLY(2) 4 0 52 0 1.2m 1 -37.0M\n\nR51 51 0 1k\n\nR52 52 0 1k\n\nGD51 50 51 TABLE {V(50,51)} ((-10,-1n)(0,0)(1m,1m)(2m,1))\n\nGD52 50 52 TABLE {V(50,52)} ((-2m,-1)(-1m,-1m)(0,0)(10,1n)) \n\nG53  3  0 POLY(1) 51 0  -49U 1M\n\nG54  0  4 POLY(1) 52 0  -49U -1M\n\n*\n\n* Current Limit \n\nG99 96 5 99 0 1 \n\nR98 0 98 1 TC=-2.8M,2.63U \n\nG97 0 98 TABLE { V(96,5) } ((-11.0,-10.0M)(-1.00M,-9.9M)(0,0)(1.00M,9.9M)(11.0,10.0M)) \n\nE97 99 0 VALUE { V(98)*((V(3)-V(4))*359M + 310M)} \n\nD98 4 5 DESD \n\nD99 5 3 DESD \n\n*\n\n* Temperature / Voltage Sensitive IQuiscent\n\nR61 0 61 100 TC 3.11M 4.51U\n\nG61 3 4 61 0 1\n\nG60 0 61 TABLE {V(3, 4)} \n\n+ ((0,0)(900M,0.0106U)(1.00,0.20U)(1.3,0.63U)\n\n+ (1.5,0.66U)(1.6,1.06U)(5.5,1.10U))\n\n*\n\n* Temp Sensitive offset voltage \n\nI73 0 70 DC 1uA \n\nR74 0 70 1 TC=2 \n\nE75 1 71 70 0 1 \n\n*\n\n* Temp Sensistive IBias \n\nI62 0 62 DC 1uA \n\nR62 0 62 REXP 58.2u \n\n* Voltage on R62 used for G12, G14 in input stage\n\n*\n\n* Models\n\n.MODEL NMI NMOS\n\n.MODEL DESD  D   N=1 IS=1.00E-15 \n\n.MODEL DL  D   N=1 IS=1F \n\n.MODEL DN1 D   IS=1P KF=146E-18 AF=1\n\n.MODEL REXP RES TCE=10.1 \n\n.ENDS MCP6001
TEXT 2008 -200 Left 2 !* LMX24_LM2902 - Rev. A\n\n* Created by Paul Goedeke; November 16, 2018\n\n* Created with Green-Williams-Lis Op Amp Macro-model Architecture\n\n* Copyright 2018 by Texas Instruments Corporation\n\n******************************************************\n\n* MACRO-MODEL SIMULATED PARAMETERS:\n\n******************************************************\n\n* OPEN-LOOP GAIN AND PHASE VS. FREQUENCY  WITH RL, CL EFFECTS (Aol)\n\n* UNITY GAIN BANDWIDTH (GBW)\n\n* INPUT COMMON-MODE REJECTION RATIO VS. FREQUENCY (CMRR)\n\n* POWER SUPPLY REJECTION RATIO VS. FREQUENCY (PSRR)\n\n* DIFFERENTIAL INPUT IMPEDANCE (Zid)\n\n* COMMON-MODE INPUT IMPEDANCE (Zic)\n\n* OPEN-LOOP OUTPUT IMPEDANCE VS. FREQUENCY (Zo)\n\n* OUTPUT CURRENT THROUGH THE SUPPLY (Iout)\n\n* INPUT VOLTAGE NOISE DENSITY VS. FREQUENCY (en)\n\n* INPUT CURRENT NOISE DENSITY VS. FREQUENCY (in)\n\n* OUTPUT VOLTAGE SWING vs. OUTPUT CURRENT (Vo)\n\n* SHORT-CIRCUIT OUTPUT CURRENT (Isc)\n\n* QUIESCENT CURRENT (Iq)\n\n* SETTLING TIME VS. CAPACITIVE LOAD (ts)\n\n* SLEW RATE (SR)\n\n* SMALL SIGNAL OVERSHOOT VS. CAPACITIVE LOAD\n\n* LARGE SIGNAL RESPONSE\n\n* OVERLOAD RECOVERY TIME (tor)\n\n* INPUT BIAS CURRENT (Ib)\n\n* INPUT OFFSET CURRENT (Ios)\n\n* INPUT OFFSET VOLTAGE (Vos)\n\n* INPUT COMMON-MODE VOLTAGE RANGE (Vcm)\n\n* INPUT OFFSET VOLTAGE VS. INPUT COMMON-MODE VOLTAGE (Vos vs. Vcm)\n\n* INPUT/OUTPUT ESD CELLS (ESDin, ESDout)\n\n******************************************************\n\n.subckt LMX24_LM2902 IN+ IN- VCC VEE OUT\n\n******************************************************\n\n* MODEL DEFINITIONS:\n\n.model BB_SW VSWITCH(Ron=50 Roff=1e12 Von=700e-3 Voff=0)\n\n.model ESD_SW VSWITCH(Ron=50 Roff=1e12 Von=250e-3 Voff=0)\n\n.model OL_SW VSWITCH(Ron=1e-3 Roff=1e9 Von=900e-3 Voff=800e-3)\n\n.model OR_SW VSWITCH(Ron=10e-3 Roff=1e9 Von=1e-3 Voff=0)\n\n.model R_NOISELESS RES(T_ABS=-273.15)\n\n******************************************************\n\n\n\n\nI_OS        ESDn MID -18N\n\nI_B         37 MID -20N\n\nV_GRp       57 MID 180\n\nV_GRn       58 MID -180\n\nV_ISCp      51 MID 40\n\nV_ISCn      52 MID -40\n\nV_ORn       45 VCLP -1.2\n\nV11         56 44 0\n\nV_ORp       43 VCLP 1.2\n\nV12         55 42 0\n\nV4          33 OUT 0\n\nVCM_MIN     79 VEE_B 0\n\nVCM_MAX     80 VCC_B -1.5\n\nI_Q         VCC VEE 175U\n\nV_OS        86 37 1.8M\n\nR61         MID 22 R_NOISELESS 8.001K \n\nC16         22 23 19.89P \n\nR58         23 22 R_NOISELESS 100MEG \n\nGVCCS2      23 MID VEE_B MID  -992.9M\n\nR57         MID 23 R_NOISELESS 1 \n\nXU3         VCC_B VEE_B 24 25 26 27 MID PHASEREV_0\n\nXU1         VIMON MID CRS CRS_DIST_0\n\nC21         28 29 313.8N  \n\nC22         30 31 636.6F  \n\nR70         31 MID R_NOISELESS 2.5 \n\nR67         31 30 R_NOISELESS 10K \n\nR66         30 MID R_NOISELESS 1 \n\nXU2         31 MID MID 32 VCCS_LIM_ZO_0\n\nGVCCS4      30 MID 29 MID  -4.3\n\nR65         29 MID R_NOISELESS 3.03K \n\nR64         29 28 R_NOISELESS 10K \n\nR63         28 MID R_NOISELESS 1 \n\nGVCCS3      28 MID CL_CLAMP 33  -90\n\nR62         32 MID R_NOISELESS 1 \n\nC29         34 MID 47F \n\nR78         MID 34 R_NOISELESS 1MEG \n\nGVCCS9      34 MID 35 MID  -1U\n\nXU5         36 MID MID CLAMP CRS MID VCCS_LIM_2_EN_0\n\nC28         38 MID 1P \n\nR77         39 38 R_NOISELESS 100 \n\nC27         40 MID 1P \n\nR76         41 40 R_NOISELESS 100 \n\nR75         MID 42 R_NOISELESS 1 \n\nGVCCS8      42 MID 43 MID  -1\n\nR74         44 MID R_NOISELESS 1 \n\nGVCCS7      44 MID 45 MID  -1\n\nXi_nn       ESDn MID FEMT_0\n\nXi_np       MID 37 FEMT_0\n\nXe_n        ESDp 37 VNSE_0\n\nC25         35 MID 47F \n\nR69         MID 35 R_NOISELESS 1MEG \n\nGVCCS6      35 MID VSENSE MID  -1U\n\nC20         CLAMP MID 9N \n\nR68         MID CLAMP R_NOISELESS 1MEG \n\nR44         MID 36 R_NOISELESS 1MEG \n\nXVCCS_LIM_1 46 27 MID 36 VCCS_LIM_1_0\n\nRdummy      MID 33 R_NOISELESS 25K \n\nRx          33 32 R_NOISELESS 250K \n\nR56         MID 47 R_NOISELESS 1K \n\nC15         47 48 1.592P \n\nR55         48 47 R_NOISELESS 100MEG \n\nGVCCS1      48 MID VCC_B MID  -100M\n\nR54         MID 48 R_NOISELESS 1 \n\nR49         MID 49 R_NOISELESS 4.616K \n\nC14         49 50 26.53P \n\nR48         50 49 R_NOISELESS 100MEG \n\nG_adjust    50 MID ESDp MID  -685.2M\n\nRsrc        MID 50 R_NOISELESS 1 \n\nXIQPos      VIMON MID MID VCC VCCS_LIMIT_IQ_0\n\nXIQNeg      MID VIMON VEE MID VCCS_LIMIT_IQ_0\n\nC_DIFF      ESDp ESDn 1P \n\nXCL_AMP     51 52 VIMON MID 53 54 CLAMP_AMP_LO_0\n\nSOR_SWp     CLAMP 55 CLAMP 55  S_VSWITCH_1\n\nSOR_SWn     56 CLAMP 56 CLAMP  S_VSWITCH_2\n\nXGR_AMP     57 58 59 MID 60 61 CLAMP_AMP_HI_0\n\nR39         57 MID R_NOISELESS 1T \n\nR37         58 MID R_NOISELESS 1T \n\nR42         VSENSE 59 R_NOISELESS 1M \n\nC19         59 MID 1F \n\nR38         60 MID R_NOISELESS 1 \n\nR36         MID 61 R_NOISELESS 1 \n\nR40         60 62 R_NOISELESS 1M \n\nR41         61 63 R_NOISELESS 1M \n\nC17         62 MID 1F \n\nC18         MID 63 1F \n\nXGR_SRC     62 63 CLAMP MID VCCS_LIM_GR_0\n\nR21         53 MID R_NOISELESS 1 \n\nR20         MID 54 R_NOISELESS 1 \n\nR29         53 64 R_NOISELESS 1M \n\nR30         54 65 R_NOISELESS 1M \n\nC9          64 MID 1F \n\nC8          MID 65 1F \n\nXCL_SRC     64 65 CL_CLAMP MID VCCS_LIM_4_0\n\nR22         51 MID R_NOISELESS 1T \n\nR19         MID 52 R_NOISELESS 1T \n\nXCLAWp      VIMON MID 66 VCC_B VCCS_LIM_CLAW+_0\n\nXCLAWn      MID VIMON VEE_B 67 VCCS_LIM_CLAW-_0\n\nR12         66 VCC_B R_NOISELESS 1K \n\nR16         66 68 R_NOISELESS 1M \n\nR13         VEE_B 67 R_NOISELESS 1K \n\nR17         69 67 R_NOISELESS 1M \n\nC6          69 MID 1F \n\nC5          MID 68 1F \n\nG2          VCC_CLP MID 68 MID  -1M\n\nR15         VCC_CLP MID R_NOISELESS 1K \n\nG3          VEE_CLP MID 69 MID  -1M\n\nR14         MID VEE_CLP R_NOISELESS 1K \n\nXCLAW_AMP   VCC_CLP VEE_CLP VOUT_S MID 70 71 CLAMP_AMP_LO_0\n\nR26         VCC_CLP MID R_NOISELESS 1T \n\nR23         VEE_CLP MID R_NOISELESS 1T \n\nR25         70 MID R_NOISELESS 1 \n\nR24         MID 71 R_NOISELESS 1 \n\nR27         70 72 R_NOISELESS 1M \n\nR28         71 73 R_NOISELESS 1M \n\nC11         72 MID 1F \n\nC10         MID 73 1F \n\nXCLAW_SRC   72 73 CLAW_CLAMP MID VCCS_LIM_3_0\n\nH2          41 MID V11 -1\n\nH3          39 MID V12 1\n\nC12         SW_OL MID 100P \n\nR32         74 SW_OL R_NOISELESS 100 \n\nR31         74 MID R_NOISELESS 1 \n\nXOL_SENSE   MID 74 40 38 OL_SENSE_0\n\nS1          28 29 SW_OL MID  S_VSWITCH_3\n\nH1          75 MID V4 1K\n\nS7          VEE OUT VEE OUT  S_VSWITCH_4\n\nS6          OUT VCC OUT VCC  S_VSWITCH_5\n\nR11         MID 76 R_NOISELESS 1T \n\nR18         76 VOUT_S R_NOISELESS 100 \n\nC7          VOUT_S MID 10P \n\nE5          76 MID OUT MID  1\n\nC13         VIMON MID 10P \n\nR33         75 VIMON R_NOISELESS 100 \n\nR10         MID 75 R_NOISELESS 1T \n\nR47         77 VCLP R_NOISELESS 100 \n\nC24         VCLP MID 100P \n\nE4          77 MID CL_CLAMP MID  1\n\nR46         MID CL_CLAMP R_NOISELESS 1K \n\nG9          CL_CLAMP MID CLAW_CLAMP MID  -1M\n\nR45         MID CLAW_CLAMP R_NOISELESS 1K \n\nG8          CLAW_CLAMP MID 34 MID  -1M\n\nR43         MID VSENSE R_NOISELESS 1K \n\nG15         VSENSE MID CLAMP MID  -1M\n\nC4          46 MID 1F \n\nR9          46 78 R_NOISELESS 1M \n\nR7          MID 79 R_NOISELESS 1T \n\nR6          80 MID R_NOISELESS 1T \n\nR8          MID 78 R_NOISELESS 1 \n\nXVCM_CLAMP  26 MID 78 MID 80 79 VCCS_EXT_LIM_0\n\nE1          MID 0 81 0  1\n\nR89         VEE_B 0 R_NOISELESS 1 \n\nR5          82 VEE_B R_NOISELESS 1M \n\nC3          82 0 1F \n\nR60         81 82 R_NOISELESS 1MEG \n\nC1          81 0 1 \n\nR3          81 0 R_NOISELESS 1T \n\nR59         83 81 R_NOISELESS 1MEG \n\nC2          83 0 1F \n\nR4          VCC_B 83 R_NOISELESS 1M \n\nR88         VCC_B 0 R_NOISELESS 1 \n\nG17         VEE_B 0 VEE 0  -1\n\nG16         VCC_B 0 VCC 0  -1\n\nR_PSR       84 24 R_NOISELESS 1K \n\nG_PSR       24 84 47 22  -1M\n\nR2          25 ESDn R_NOISELESS 1M \n\nR1          84 85 R_NOISELESS 1M \n\nR_CMR       86 85 R_NOISELESS 1K \n\nG_CMR       85 86 49 MID  -1M\n\nC_CMn       ESDn MID 2P \n\nC_CMp       MID ESDp 2P \n\nR53         ESDn MID R_NOISELESS 1T \n\nR52         MID ESDp R_NOISELESS 1T \n\nR35         IN- ESDn R_NOISELESS 10M \n\nR34         IN+ ESDp R_NOISELESS 10M \n\n\n.MODEL S_VSWITCH_1 VSWITCH (RON=10M ROFF=1T VON=10M VOFF=0)\n\n.MODEL S_VSWITCH_2 VSWITCH (RON=10M ROFF=1T VON=10M VOFF=0)\n\n.MODEL S_VSWITCH_3 VSWITCH (RON=1M ROFF=1T VON=500M VOFF=100M)\n\n.MODEL S_VSWITCH_4 VSWITCH (RON=50 ROFF=1T VON=500M VOFF=450M)\n\n.MODEL S_VSWITCH_5 VSWITCH (RON=50 ROFF=1T VON=500M VOFF=450M)\n\n\n.ENDS LMX24_LM2902\n\n*\n\n.SUBCKT PHASEREV_0  VCC VEE VIN+ VIN- VOUT+ VOUT- MID\n\nE1 VOUT+ MID VALUE={IF(V(VIN+,MID)<V(VEE,MID)-0.3,V(VCC,MID),V(VIN+,MID))}\n\nE2 VOUT- MID VALUE={IF(V(VIN-,MID)<V(VEE,MID)-0.3,V(VCC,MID),V(VIN-,MID))}\n\n.ENDS\n\n*\n\n\n\n\n.SUBCKT CRS_DIST_0  VIMON MID OUT\n\nV1 VREF MID -40M\n\nESHF VSHF MID VIMON VREF 1\n\nGZC MID ZC VALUE = {SGN(V(VSHF,MID))}\n\nR1 ZC MID 1\n\nC1 ZC MID 2U\n\nGCR MID OUT VALUE = {IF((ABS(V(ZC,MID))<=0.9),0,1)}\n\nR2 OUT MID 1\n\n.ENDS\n\n*\n\n\n\n\n.SUBCKT VCCS_LIM_ZO_0  VC+ VC- IOUT+ IOUT-\n\n.PARAM GAIN = 4E3\n\n.PARAM IPOS = 1E6\n\n.PARAM INEG = -1E6\n\nG1 IOUT+ IOUT- VALUE={LIMIT(GAIN*V(VC+,VC-),INEG,IPOS)}\n\n.ENDS\n\n*\n\n\n\n\n.SUBCKT VCCS_LIM_2_EN_0  VC+ VC- IOUT+ IOUT- EN MID\n\n.PARAM GAIN = 8.4E-4\n\n.PARAM IPOS = 0.0048\n\n.PARAM INEG = -0.0048\n\nG1 IOUT+ IOUT- VALUE={LIMIT(GAIN*V(EN,MID)*V(VC+,VC-),INEG,IPOS)}\n\n.ENDS\n\n*\n\n\n\n\n.SUBCKT FEMT_0  1 2\n\n.PARAM FLWF=1E-3\n\n.PARAM NLFF=500\n\n.PARAM NVRF=500\n\n.PARAM GLFF={PWR(FLWF,0.25)*NLFF/1164}\n\n.PARAM RNVF={1.184*PWR(NVRF,2)}\n\n.MODEL DVNF D KF={PWR(FLWF,0.5)/1E11} IS=1.0E-16\n\nI1 0 7 10E-3\n\nI2 0 8 10E-3\n\nD1 7 0 DVNF\n\nD2 8 0 DVNF\n\nE1 3 6 7 8 {GLFF}\n\nR1 3 0 1E9\n\nR2 3 0 1E9\n\nR3 3 6 1E9\n\nE2 6 4 5 0 10\n\nR4 5 0 {RNVF}\n\nR5 5 0 {RNVF}\n\nR6 3 4 1E9\n\nR7 4 0 1E9\n\nG1 1 2 3 4 1E-6\n\n.ENDS\n\n*\n\n\n\n\n.SUBCKT VNSE_0  1 2\n\n.PARAM FLW=10\n\n.PARAM NLF=80\n\n.PARAM NVR=35\n\n.PARAM GLF={PWR(FLW,0.25)*NLF/1164}\n\n.PARAM RNV={1.184*PWR(NVR,2)}\n\n.MODEL DVN D KF={PWR(FLW,0.5)/1E11} IS=1.0E-16\n\nI1 0 7 10E-3\n\nI2 0 8 10E-3\n\nD1 7 0 DVN\n\nD2 8 0 DVN\n\nE1 3 6 7 8 {GLF}\n\nR1 3 0 1E9\n\nR2 3 0 1E9\n\nR3 3 6 1E9\n\nE2 6 4 5 0 10\n\nR4 5 0 {RNV}\n\nR5 5 0 {RNV}\n\nR6 3 4 1E9\n\nR7 4 0 1E9\n\nE3 1 2 3 4 1\n\n.ENDS\n\n*\n\n\n\n\n.SUBCKT VCCS_LIM_1_0  VC+ VC- IOUT+ IOUT-\n\n.PARAM GAIN = 1E-4\n\n.PARAM IPOS = .5\n\n.PARAM INEG = -.5\n\nG1 IOUT+ IOUT- VALUE={LIMIT(GAIN*V(VC+,VC-),INEG,IPOS)}\n\n.ENDS\n\n*\n\n\n\n\n.SUBCKT VCCS_LIMIT_IQ_0  VC+ VC- IOUT+ IOUT-\n\n.PARAM GAIN = 1E-3\n\nG1 IOUT- IOUT+ VALUE={IF( (V(VC+,VC-)<=0),0,GAIN*V(VC+,VC-) )}\n\n.ENDS\n\n*\n\n\n\n\n.SUBCKT CLAMP_AMP_LO_0  VC+ VC- VIN COM VO+ VO-\n\n.PARAM G=1\n\nGVO+ COM VO+ VALUE = {IF(V(VIN,COM)>V(VC+,COM),((V(VIN,COM)-V(VC+,COM))*G),0)}\n\nGVO- COM VO- VALUE = {IF(V(VIN,COM)<V(VC-,COM),((V(VC-,COM)-V(VIN,COM))*G),0)}\n\n.ENDS\n\n*\n\n\n\n\n.SUBCKT CLAMP_AMP_HI_0  VC+ VC- VIN COM VO+ VO-\n\n.PARAM G=10\n\nGVO+ COM VO+ VALUE = {IF(V(VIN,COM)>V(VC+,COM),((V(VIN,COM)-V(VC+,COM))*G),0)}\n\nGVO- COM VO- VALUE = {IF(V(VIN,COM)<V(VC-,COM),((V(VC-,COM)-V(VIN,COM))*G),0)}\n\n.ENDS\n\n*\n\n\n\n\n.SUBCKT VCCS_LIM_GR_0  VC+ VC- IOUT+ IOUT-\n\n.PARAM GAIN = 1\n\n.PARAM IPOS = 0.013\n\n.PARAM INEG = -0.013\n\nG1 IOUT+ IOUT- VALUE={LIMIT(GAIN*V(VC+,VC-),INEG,IPOS)}\n\n.ENDS\n\n*\n\n\n\n\n.SUBCKT VCCS_LIM_4_0  VC+ VC- IOUT+ IOUT-\n\n.PARAM GAIN = 1\n\n.PARAM IPOS = 1.04\n\n.PARAM INEG = -1.04\n\nG1 IOUT+ IOUT- VALUE={LIMIT(GAIN*V(VC+,VC-),INEG,IPOS)}\n\n.ENDS\n\n*\n\n\n\n\n.SUBCKT VCCS_LIM_CLAW+_0  VC+ VC- IOUT+ IOUT-\n\nG1 IOUT+ IOUT- TABLE {ABS(V(VC+,VC-))} =\n\n+(0, 1.17E-03)\n\n+(0.0046251, 1.17E-3)\n\n+(0.15716, 1.21E-3)\n\n+(1.3309, 1.28E-3)\n\n+(35.075, 2.12E-3)\n\n+(35.680, 2.55E-3)\n\n+(36.033, 2.84E-3)\n\n+(37.416, 7.97E-3)\n\n.ENDS\n\n*\n\n\n\n\n.SUBCKT VCCS_LIM_CLAW-_0  VC+ VC- IOUT+ IOUT-\n\nG1 IOUT+ IOUT- TABLE {ABS(V(VC+,VC-))} =\n\n+(0.010, 2.50E-5)\n\n+(0.070, 2.50E-5)\n\n+(0.090, 5.80E-4)\n\n+(0.100, 6.06E-4)\n\n+(0.760, 7.14E-4) \n\n+(1.440, 7.62E-4)\n\n+(8.000, 1.10E-3)\n\n+(13.60, 1.55E-3)\n\n+(15.45, 1.75E-3)\n\n+(17.26, 2.15E-3)\n\n+(18.87, 2.94E-3)\n\n+(21.58, 4.50E-3)\n\n+(25.53, 1.02E-2)\n\n.ENDS\n\n*\n\n\n\n\n\n.SUBCKT VCCS_LIM_3_0  VC+ VC- IOUT+ IOUT-\n\n.PARAM GAIN = 1\n\n.PARAM IPOS = 0.435\n\n.PARAM INEG = -0.435\n\nG1 IOUT+ IOUT- VALUE={LIMIT(GAIN*V(VC+,VC-),INEG,IPOS)}\n\n.ENDS\n\n*\n\n\n\n\n.SUBCKT OL_SENSE_0  COM SW+ OLN  OLP\n\nGSW+ COM SW+ VALUE = {IF((V(OLN,COM)>10E-3 | V(OLP,COM)>10E-3),1,0)}\n\n.ENDS\n\n*\n\n\n\n\n.SUBCKT VCCS_EXT_LIM_0  VIN+ VIN- IOUT- IOUT+ VP+ VP-\n\n.PARAM GAIN = 1\n\nG1 IOUT+ IOUT- VALUE={LIMIT(GAIN*V(VIN+,VIN-),V(VP-,VIN-), V(VP+,VIN-))}\n\n.ENDS\n\n*
TEXT 2984 -208 Left 2 !* TLV2371\n\n*****************************************************************************\n\n* (C) Copyright 2011 Texas Instruments Incorporated. All rights reserved.                                            \n\n*****************************************************************************\n\n** This model is designed as an aid for customers of Texas Instruments.\n\n** TI and its licensors and suppliers make no warranties, either expressed\n\n** or implied, with respect to this model, including the warranties of \n\n** merchantability or fitness for a particular purpose.  The model is\n\n** provided solely on an "as is" basis.  The entire risk as to its quality\n\n** and performance is with the customer.\n\n*****************************************************************************\n\n*\n\n* This model is subject to change without notice. Texas Instruments\n\n* Incorporated is not responsible for updating this model.\n\n*\n\n*****************************************************************************\n\n*\n\n** Released by: Analog eLab Design Center, Texas Instruments Inc.\n\n* Part: TLV2371\n\n* Date: 01JUL2011\n\n* Model Type: ALL IN ONE\n\n* Simulator: PSPICE\n\n* Simulator Version: 16.0.0.p001\n\n* EVM Order Number: N/A\n\n* EVM Users Guide: N/A\n\n* Datasheet: SLOS270D - MARCH 2001 - REVISED JANUARY 2005\n\n*\n\n* Model Version: 1.0\n\n*\n\n*****************************************************************************\n\n*\n\n* Updates:\n\n*\n\n* Version 1.0 : \n\n* Release to Web\n\n*\n\n*****************************************************************************\n\n* THIS MODEL IS APPLICABLE TO TLV2370,TLV2371, TlV2372\n\n* BEGIN MODEL TLV2371\n\n* PINOUT ORDER +IN -IN +V -V OUT\n\n* PINOUT ORDER  3   4   6  2  1\n\n* BEGIN NOTES\n\n* FOR MORE ACCURATE CURRENTS\n\n* IF LOOKING AT BIAS CURRENT\n\n* USE GMIN-1E-13\n\n* MODEL TEMPERATURE RANGE IS\n\n* -40 C TO +125 C, NOT ALL\n\n* PARAMETERS TRACK THOSE OF\n\n* THE REAL PART VS TEMPERATURE\n\n* END NOTES\n\n* BEGIN FEATURES\n\n* OPEN LOOP GAIN AND PHASE\n\n* INPUT VOLTAGE NOISE W 1/F\n\n* INPUT CURRENT NOISE\n\n* INPUT BIAS CURRENT\n\n* INPUT BIAS CURRENT VS TEMPERATURE\n\n* INPUT CAPACITANCE\n\n* INPUT COMMON MODE VOLTAGE RANGE\n\n* INPUT VOS SHIFT WITH VCM\n\n* INPUT CLAMPS TO RAILS\n\n* CMRR WITH FREQUENCY EFFECTS\n\n* PSRR WITH FREQUENCY EFFECTS\n\n* SLEW RATE\n\n* QUIESCENT CURRENT\n\n* HIGH CLOAD EFFECTS\n\n* CLASS AB BIAS IN OUTPUT STAGE\n\n* OUTPUT CURRENT THROUGH SUPPLIES\n\n* OUTPUT CURRENT LIMITING\n\n* OUTPUT CLAMPS TO RAILS\n\n* OUTPUT SWING VS OUTPUT CURRENT\n\n* END FEATURES\n\n*****************************************************************************\n\n.SUBCKT TLV2371 3 4 6 2 1\n\nVEN 5 2 2\n\nREN 5 2 1E12\n\nQ20 7 8 9 QLN\n\nR3 10 11 2\n\nR4 12 11 2\n\nR10 8 13 1E3\n\nR11 14 15 1E3\n\nR12 16 6 4\n\nR13 2 17 4\n\nR16 18 19 200\n\nR17 20 21 4\n\nR18 9 22 4\n\nD5 23 6 DD\n\nD6 2 23 DD\n\nD7 24 0 DIN\n\nD8 25 0 DIN\n\nI8 0 24 0.1E-3\n\nI9 0 25 0.1E-3\n\nE2 9 0 2 0 1\n\nE3 21 0 6 0 1\n\nD9 26 0 DVN\n\nD10 27 0 DVN\n\nI10 0 26 0.1E-3\n\nI11 0 27 0.1E-3\n\nE4 28 4 26 27 0.025\n\nG2 29 4 24 25 2.9E-7\n\nR22 2 6 100E6\n\nE5 30 0 21 0 1\n\nE6 31 0 9 0 1\n\nE7 32 0 33 0 1\n\nR30 30 34 1E5\n\nR31 31 35 1E5\n\nR32 32 36 1E5\n\nR33 0 34 10\n\nR34 0 35 10\n\nR35 0 36 10\n\nE10 37 3 36 0 0.01\n\nR36 38 33 1E3\n\nR37 33 39 1E3\n\nC6 30 34 0.2E-12\n\nC7 31 35 0.2E-12\n\nC8 32 36 0.2E-12\n\nE11 40 37 35 0 0.8\n\nE12 29 40 34 0 0.8\n\nE14 41 9 21 9 0.5\n\nD11 18 21 DD\n\nD12 9 18 DD\n\nM1 42 43 17 17 NOUT L=3U W=80U\n\nM2 44 45 16 16 POUT L=3U W=80U\n\nM3 46 46 20 20 POUT L=3U W=80U\n\nM4 47 48 10 10 PIN L=3U W=110U\n\nM5 49 50 12 12 PIN L=3U W=110U\n\nM8 51 51 22 22 NOUT L=3U W=80U\n\nR43 52 45 100\n\nR44 53 43 100\n\nG3 18 41 54 41 0.2E-3\n\nR45 41 18 120E6\n\nC12 19 23 10E-12\n\nR46 9 47 2E3\n\nR47 9 49 2E3\n\nC13 47 49 1E-12\n\nC14 29 0 4E-12\n\nC15 28 0 4E-12\n\nC16 23 0 0.5E-12\n\nD13 43 7 DD\n\nD14 55 45 DD\n\nQ15 55 15 21 QLP\n\nV18 29 56 0\n\nM19 57 58 21 21 PIN L=6U W=500U\n\nE17 39 0 29 0 1\n\nE18 38 0 4 0 1\n\nM23 58 58 21 21 PIN L=6U W=500U\n\nV21 57 11 0\n\nR59 23 44 1\n\nR60 42 23 1\n\nJ1 59 29 59 JNC\n\nJ2 59 28 59 JNC\n\nJ3 28 60 28 JNC\n\nJ4 29 60 29 JNC\n\nC21 29 61 2E-12\n\nE20 62 41 49 47 1\n\nR62 62 54 1E4\n\nC23 54 41 0.1E-12\n\nG7 63 41 18 41 -1E-3\n\nG8 41 64 18 41 1E-3\n\nG9 41 65 51 9 1E-3\n\nG10 66 41 21 46 1E-3\n\nD17 66 63 DD\n\nD18 64 65 DD\n\nR66 63 66 100E6\n\nR67 65 64 100E6\n\nR68 66 21 1E3\n\nR69 9 65 1E3\n\nE23 21 52 21 66 1\n\nE24 53 9 65 9 1\n\nR70 64 41 1E6\n\nR71 65 41 1E6\n\nR72 41 66 1E6\n\nR73 41 63 1E6\n\nG11 6 2 67 0 315E-6\n\nR75 40 29 1E9\n\nR76 37 40 1E9\n\nR77 3 37 1E9\n\nR78 4 28 1E9\n\nR79 41 54 1E9\n\nR81 52 21 1E9\n\nR82 9 53 1E9\n\nR83 33 0 1E9\n\nG14 58 9 67 0 55U\n\nG15 46 51 67 0 80U\n\nE48 68 18 67 0 30\n\nE49 69 41 67 0 -30\n\nV49 70 69 15\n\nV50 71 68 -15\n\nR127 68 0 1E12\n\nR128 69 0 1E12\n\nM41 41 71 18 72 PSW L=1.5U W=150U\n\nM42 18 70 41 73 NSW L=1.5U\n\nR129 72 0 1E12\n\nR130 73 0 1E12\n\nM43 74 5 9 9 NEN L=3U W=300U\n\nM44 75 76 9 9 NEN L=3U W=3000U\n\nR131 74 21 1E4\n\nR132 75 77 1E6\n\nV51 77 9 1\n\nM45 78 78 21 21 PEN L=6U W=60U\n\nM46 5 78 21 21 PEN L=6U W=60U\n\nI20 78 9 0.1E-6\n\nC26 5 0 1E-12\n\nE50 67 0 79 9 1\n\nV52 75 79 1.111E-6\n\nR133 9 79 1E12\n\nC32 21 74 3E-15\n\nC33 77 75 3E-15\n\nI21 6 2 30E-6\n\nL1 23 1 4E-9\n\nR150 23 1 400\n\nV78 21 59 0\n\nV79 60 9 0\n\nR155 46 21 1E8\n\nR156 9 51 1E8\n\nR157 17 43 1E8\n\nR158 16 45 1E8\n\nRG1 0 67 1E9\n\nR159 61 28 100\n\nR225 50 28 25E3\n\nR226 48 56 25E3\n\nM48 80 81 2 2 NIQS L=3U W=1000U\n\nR297 80 6 61.5E3\n\nE94 81 2 67 0 2\n\nM49 82 74 9 9 NEN L=3U W=300U\n\nM50 76 82 9 9 NEN L=3U W=300U\n\nR298 82 77 1E4\n\nR299 76 77 1E4\n\nC35 77 82 40E-12\n\nM51 83 84 85 85 NIN L=3U W=110U\n\nM52 86 87 88 88 NIN L=3U W=110U\n\nR300 89 85 2\n\nR301 89 88 2\n\nR302 83 21 2E3\n\nR303 86 21 2E3\n\nC36 83 86 1E-12\n\nG36 18 41 90 41 0.2E-3\n\nR304 41 90 1E9\n\nC37 90 41 0.1E-12\n\nE97 91 41 86 83 1\n\nR305 91 90 1E4\n\nV115 92 56 1E-3\n\nR306 28 87 25E3\n\nR307 92 84 25E3\n\nM53 93 94 95 95 PIN L=6U W=500U\n\nR308 95 57 2E3\n\nV116 21 94 1.25\n\nM54 93 93 9 9 NIN L=3U W=500U\n\nM55 89 93 9 9 NIN L=3U W=500U\n\nE98 21 14 6 16 1\n\nE99 13 9 17 2 1\n\nC105 77 76 130E-12\n\nR233 78 21 1E12\n\nR334 93 9 1E12\n\nR335 58 21 1E12\n\nR336 94 21 1E12\n\nR337 2 81 1E12\n\nG37 28 0 96 0 6.6E-12\n\nI48 28 0 1E-12\n\nI49 0 97 1E-3\n\nD46 97 0 DD\n\nV119 97 98 0.7\n\nR633 0 98 1E6\n\nE100 99 0 98 0 -571\n\nR634 0 99 1E6\n\nD47 100 96 DD\n\nV120 99 100 83.5\n\nG38 29 0 96 0 6.6E-12\n\nI50 29 0 1E-12\n\nR635 0 96 1E6\n\nR636 96 100 1E11\n\n.MODEL DVN D KF=8E-12 IS=1E-16\n\n.MODEL DD D\n\n.MODEL DIN D\n\n.MODEL QLN NPN\n\n.MODEL QLP PNP\n\n.MODEL JNC NJF\n\n.MODEL POUT PMOS KP=200U VTO=-0.7\n\n.MODEL NOUT NMOS KP=200U VTO=0.7\n\n.MODEL PIN PMOS KP=200U VTO=-0.7\n\n.MODEL NIN NMOS KP=200U VTO=0.7\n\n.MODEL NIQS NMOS KP=200U VTO=0.7 IS=1E-18\n\n.MODEL NEN NMOS KP=200U VTO=0.5 IS=1E-18\n\n.MODEL PEN PMOS KP=200U VTO=-0.7 IS=1E-18\n\n.MODEL PSW PMOS KP=200U VTO=-7.5 IS=1E-18\n\n.MODEL NSW NMOS KP=200U VTO=7.5 IS=1E-18\n\n.ENDS\n\n* END MODEL TLV2371